/*--------------------------------*- C++ -*----------------------------------*\
  =========                 |
  \\      /  F ield         | OpenFOAM: The Open Source CFD Toolbox
   \\    /   O peration     | Website:  https://openfoam.org
    \\  /    A nd           | Version:  8
     \\/     M anipulation  |
\*---------------------------------------------------------------------------*/
FoamFile
{
    version     2.0;
    format      ascii;
    class       volScalarField;
    object      alphat;
}
// * * * * * * * * * * * * * * * * * * * * * * * * * * * * * * * * * * * * * //

dimensions      [1 -1 -1 0 0 0 0];

internalField   uniform 0;

boundaryField
{
    groove_to_filminlet
    {
        type            fixedValue;
	value		$internalField;
    }
    groove_to_filmoutlet
    {
        type            fixedValue;
	value		$internalField;
    }
    groovesides
    {
        type            zeroGradient;
    }
    groove_to_bush
    {
        type            compressible::alphatWallFunction;
	value		uniform 0;
    }
    groove_to_shaft
    {
        type            compressible::alphatWallFunction;
	value		uniform 0;
    }
    groovesupply
    {
        type            fixedValue;
	value		$internalField;
    }
    "procBoundary.*"
    {
	type		processor;
    }
}

// ************************************************************************* //
