/*--------------------------------*- C++ -*----------------------------------*\
  =========                 |
  \\      /  F ield         | OpenFOAM: The Open Source CFD Toolbox
   \\    /   O peration     | Website:  https://openfoam.org
    \\  /    A nd           | Version:  8
     \\/     M anipulation  |
\*---------------------------------------------------------------------------*/
FoamFile
{
    version     2.0;
    format      binary;
    class       volScalarField;
    location    "0/groove";
    object      alpha.oil;
}
// * * * * * * * * * * * * * * * * * * * * * * * * * * * * * * * * * * * * * //

dimensions      [0 0 0 0 0 0 0];

internalField   uniform 1;

boundaryField
{
    groove_to_shaft
    {
        type            zeroGradient;
    }
    groove_to_bush
    {
        type            zeroGradient;
    }
    groovesides
    {
        type            zeroGradient;
    }
    groove_to_filminlet
    {
        type            zeroGradient;
    }
    groove_to_filmoutlet
    {
        type            mappedAlphaScalar;
        nbrAlpha        relRho;
        value           uniform 1;
	innerR		0.05;
	outerR		0.05014;
    }
    groovesupply
    {
        type            fixedValue;
        value           uniform 1;
    }
    "processor.*"
    {
	    type	processor;
    }
}


// ************************************************************************* //
