/*--------------------------------*- C++ -*----------------------------------*\
  =========                 |
  \\      /  F ield         | OpenFOAM: The Open Source CFD Toolbox
   \\    /   O peration     | Website:  https://openfoam.org
    \\  /    A nd           | Version:  8
     \\/     M anipulation  |
\*---------------------------------------------------------------------------*/
FoamFile
{
    version     2.0;
    format      ascii;
    class       volScalarField;
    object      epsilon;
}
// * * * * * * * * * * * * * * * * * * * * * * * * * * * * * * * * * * * * * //

epsilonInlet      	4;

dimensions      	[0 2 -3 0 0 0 0];

internalField   	uniform $epsilonInlet;

boundaryField
{
    groove_to_filminlet
    {
        type            zeroGradient;
    }
    groove_to_filmoutlet
    {
        type            turbulentMixingLengthDissipationRateInlet;
	mixingLength	14e-5;
	value		$internalField;
    }
    groovesides
    {
        type            zeroGradient;
    }
    groove_to_bush
    {
        type            epsilonWallFunction;
	value		$internalField;
    }
    groove_to_shaft
    {
        type            epsilonWallFunction;
	value		$internalField;
    }
    groovesupply
    {
        type            turbulentMixingLengthDissipationRateInlet;
	mixingLength	0.009;
	value		$internalField;
    }
    "procBoundary.*"
    {
	type		processor;
    }
}

// ************************************************************************* //
