/*--------------------------------*- C++ -*----------------------------------*\
  =========                 |
  \\      /  F ield         | OpenFOAM: The Open Source CFD Toolbox
   \\    /   O peration     | Website:  https://openfoam.org
    \\  /    A nd           | Version:  8
     \\/     M anipulation  |
\*---------------------------------------------------------------------------*/
FoamFile
{
    version     2.0;
    format      ascii;
    class       volScalarField;
    object      omega;
}
// * * * * * * * * * * * * * * * * * * * * * * * * * * * * * * * * * * * * * //

omegaInlet      72;
omegaFilm	360;

dimensions      [0 0 -1 0 0 0 0];

internalField   uniform $omegaInlet;

boundaryField
{
    groove_to_filminlet
    {
        type            fixedValue;
	value		uniform $omegaFilm;
    }
    groove_to_filmoutlet
    {
        type            fixedValue;
	value		uniform $omegaFilm;
    }
    groovesides
    {
        type            zeroGradient;
    }
    groove_to_bush
    {
        type            omegaWallFunction;
	value		 $internalField;
    }
    groove_to_shaft
    {
        type            omegaWallFunction;
	value		 $internalField;
    }
    groovesupply
    {
        type            fixedValue;
	value		 $internalField;
    }
    "procBoundary.*"
    {
	type		processor;
    }
}

// ************************************************************************* //
