/*--------------------------------*- C++ -*----------------------------------*\
  =========                 |
  \\      /  F ield         | OpenFOAM: The Open Source CFD Toolbox
   \\    /   O peration     | Website:  https://openfoam.org
    \\  /    A nd           | Version:  8
     \\/     M anipulation  |
\*---------------------------------------------------------------------------*/
FoamFile
{
    version     2.0;
    format      ascii;
    class       volScalarField;
    location    "0/fluid";
    object      p_rgh;
}
// * * * * * * * * * * * * * * * * * * * * * * * * * * * * * * * * * * * * * //

dimensions      [ 1 -1 -2 0 0 0 0 ];

internalField   uniform 17e4;

boundaryField
{
    groove_to_filminlet
    {
        type            fixedFluxPressure;
	value		$internalField;
    }
    groove_to_filmoutlet
    {
        type            fixedFluxPressure;
	value		$internalField;
    }
    groovesides
    {
        type            zeroGradient;
    }
    groove_to_bush
    {
        type            zeroGradient;
    }
    groove_to_shaft
    {
        type            zeroGradient;
    }
    groovesupply
    {
        type            fixedValue;
	value		uniform 17e4;
    }
    "procBoundary.*"
    {
	type		processor;
	value 		$internalField;
    }
}

// ************************************************************************* //
