/*--------------------------------*- C++ -*----------------------------------*\
  =========                 |
  \\      /  F ield         | OpenFOAM: The Open Source CFD Toolbox
   \\    /   O peration     | Website:  https://openfoam.org
    \\  /    A nd           | Version:  8
     \\/     M anipulation  |
\*---------------------------------------------------------------------------*/
FoamFile
{
    version     2.0;
    format      ascii;
    class       volScalarField;
    location    "0/fluid";
    object      T;
}
// * * * * * * * * * * * * * * * * * * * * * * * * * * * * * * * * * * * * * //

dimensions      [ 0 0 0 1 0 0 0 ];

internalField   uniform 313;

boundaryField
{
    groove_to_filminlet
    {
        type            zeroGradient;
    }
    groove_to_filmoutlet
    {
        type            mapped;
	value		$internalField;
	setAverage	false;
	average 	313;
    }
    groovesides
    {
        type            zeroGradient;
    }
    groove_to_bush
    {
    	type            compressible::turbulentTemperatureCoupledBaffleMixed;
        value           $internalField;
	Tnbr            T;
    }
    groove_to_shaft
    {
    	type            compressible::turbulentTemperatureCoupledBaffleMixed;
        value           $internalField;
	Tnbr            T;    
    }
    groovesupply
    {
        type            fixedValue;
	value		uniform 313;
    }
    "procBoundary.*"
    {
	type		processor;
	value 		$internalField;
    }
}

// ************************************************************************* //
