/*--------------------------------*- C++ -*----------------------------------*\
  =========                 |
  \\      /  F ield         | OpenFOAM: The Open Source CFD Toolbox
   \\    /   O peration     | Website:  https://openfoam.org
    \\  /    A nd           | Version:  8
     \\/     M anipulation  |
\*---------------------------------------------------------------------------*/
FoamFile
{
    version     2.0;
    format      ascii;
    class       volVectorField;
    location    "0/fluid";
    object      U;
}
// * * * * * * * * * * * * * * * * * * * * * * * * * * * * * * * * * * * * * //

dimensions      [ 0 1 -1 0 0 0 0 ];

internalField   uniform (0 0 0);

boundaryField
{
    groove_to_filmoutlet
    {
        type            mapped;
	value		uniform (0 0 0);
	setAverage	false;
	average 	(0 0 0);
	field 		U;
    }
    groove_to_filminlet
    {
        type            mapped;
	value		uniform (0 0 0);
	setAverage	false;
	average 	(0 0 0);
	field 		U;
    }
    groovesides
    {
        type            slip;
    }
    groove_to_bush
    {
        type            noSlip;
    }
    groove_to_shaft
    {
        type            rotatingWallVelocity;
	omega		156;
	origin 		(0 0 0);
	axis		(0 0 1);
    }
    groovesupply
    {
        type            directionMixed;
	inletDirection 	(0 -1 0);
	value		(0 0 0);

	refValue	uniform (0 0 0);
	refGradient 	uniform (0 0 0);
	valueFraction	uniform (1 0 0 0 0 1);
	normal 		(0 -1 0);
    }
    "procBoundary.*"
    {
	type		processor;
	value 		$internalField;
    }
}

// ************************************************************************* //
