/*--------------------------------*- C++ -*----------------------------------*\
  =========                 |
  \\      /  F ield         | OpenFOAM: The Open Source CFD Toolbox
   \\    /   O peration     | Website:  https://openfoam.org
    \\  /    A nd           | Version:  8
     \\/     M anipulation  |
\*---------------------------------------------------------------------------*/
FoamFile
{
    version     2.0;
    format      ascii;
    class       volScalarField;
    location    "0/film";
    object      cellToRegion;
}
// * * * * * * * * * * * * * * * * * * * * * * * * * * * * * * * * * * * * * //

dimensions      [0 0 0 0 0 0 0];

internalField   uniform 1;

boundaryField
{
    filmsides
    {
        type            zeroGradient;
    }
    filminlet_to_groove
    {
        type            zeroGradient;
    }
    filmoutlet_to_groove
    {
        type            zeroGradient;
    }
    film_to_bush
    {
        type            calculated;
        value           uniform 0;
    }
    film_to_shaft
    {
        type            calculated;
        value           uniform 0;
    }
}


// ************************************************************************* //
