/*--------------------------------*- C++ -*----------------------------------*\
  =========                 |
  \\      /  F ield         | OpenFOAM: The Open Source CFD Toolbox
   \\    /   O peration     | Website:  https://openfoam.org
    \\  /    A nd           | Version:  8
     \\/     M anipulation  |
\*---------------------------------------------------------------------------*/
FoamFile
{
    version     2.0;
    format      ascii;
    class       volScalarField;
    location    "0/TEHL";
    object      p;
}
// * * * * * * * * * * * * * * * * * * * * * * * * * * * * * * * * * * * * * //

dimensions      [1 -1 -2 0 0 0 0];

internalField   uniform 1e5;

boundaryField
{
    film_to_shaft 
    {
        type            zeroGradient;
    }
    filmsides
    {
        type            zeroGradient;
    }
    filminlet_to_groove
    {
        type            zeroGradient;
    }
    filmoutlet_to_groove
    {
        type            zeroGradient;
    }
    film_to_bush 
    {
        type            zeroGradient;
    }
    "procBoundary.*"
    {
	type		processor;
	value 		$internalField;
    }
}


// ************************************************************************* //
