/*--------------------------------*- c++ -*----------------------------------*\
  =========                 |
  \\      /  F ield         | OpenFOAM: The Open Source CFD Toolbox
   \\    /   O peration     | Website:  https://openfoam.org
    \\  /    A nd           | Version:  8
     \\/     M anipulation  |
\*---------------------------------------------------------------------------*/
FoamFile
{
    version     2.0;
    format      ascii;
    class       volScalarField;
    location    "0/TEHL";
    object      T;
}
// * * * * * * * * * * * * * * * * * * * * * * * * * * * * * * * * * * * * * //

dimensions      [0 0 0 1 0 0 0];

internalField   uniform 313;

boundaryField
{
    filmsides
    {
	type 		zeroGradient;
    }

    filminlet_to_groove
    {
        type            mapped;
	value		$internalField;
	setAverage	false;
	average 	313;
    }

    filmoutlet_to_groove
    {
	type            zeroGradient;
    }

    film_to_bush 
    {
        type            compressible::turbulentTemperatureCoupledBaffleMixed;
        value           $internalField;
        Tnbr            T;   
    }

    film_to_shaft
    {
	type            compressible::turbulentTemperatureCoupledBaffleMixed;
        value           $internalField;
	Tnbr            T;
    }

    "procBoundary.*"
    {
	type		processor;
	value 		$internalField;
    }
}


// ************************************************************************* //
