/*--------------------------------*- C++ -*----------------------------------*\
  =========                 |
  \\      /  F ield         | OpenFOAM: The Open Source CFD Toolbox
   \\    /   O peration     | Website:  https://openfoam.org
    \\  /    A nd           | Version:  8
     \\/     M anipulation  |
\*---------------------------------------------------------------------------*/
FoamFile
{
    version     2.0;
    format      ascii;
    class       dictionary;
    location    "system/fluid";
    object      fvSchemes;
}
// * * * * * * * * * * * * * * * * * * * * * * * * * * * * * * * * * * * * * //
ddtSchemes
{
    default             Euler;
}

gradSchemes
{
    default             Gauss linear;
}

divSchemes
{
    default             		Gauss upwind;
    div(((rho*nuEff)*dev2(T(grad(U)))))	Gauss linear;
    div(phi,U)				Gauss upwind;
    div(phiv,p) 			Gauss linear;
    div(phi,K) 				Gauss linear;
    div(phi,e) 				Gauss upwind
    div(phi,Ekp) 			Gauss linear;

    div(phi,omega)			Gauss upwind;
    div(phi,epsilon)			Gauss upwind;
    div(phi,k)				Gauss upwind;

    div(phi,alpha)  			Gauss interfaceCompression vanLeer 1;
    //div(phi,alpha)  			Gauss upwind;
}

laplacianSchemes
{
    default         Gauss linear corrected;
}

interpolationSchemes
{
    default         linear;
}

snGradSchemes
{
    default         corrected;
}

// ************************************************************************* //
