/*--------------------------------*- C++ -*----------------------------------*\
  =========                 |
  \\      /  F ield         | OpenFOAM: The Open Source CFD Toolbox
   \\    /   O peration     | Website:  https://openfoam.org
    \\  /    A nd           | Version:  8
     \\/     M anipulation  |
\*---------------------------------------------------------------------------*/
FoamFile
{
    version     2.0;
    format      ascii;
    class       dictionary;
    location    "system/fluid";
    object      fvSolution;
}
// * * * * * * * * * * * * * * * * * * * * * * * * * * * * * * * * * * * * * //

solvers
{
    p_rgh
    {
        solver          GAMG;
        smoother        GaussSeidel;
        tolerance       1e-08;
        relTol          0.01;
    }

    "(U|h|e|k|epsilon|omega|T)"
    {
        solver          PBiCGStab;
	preconditioner	DILU;
        tolerance       1e-08;
        relTol          0.01;
    }

    UFinal
    {
	    $U;
    }

    TFinal
    {
	    $T;
    }

    eFinal
    {
	    $e;
    }

    p_rghFinal
    {
	    $p_rgh;
    }

    rhoFinal
    {
	    $rho;
    }

    omegaFinal
    {
	    $omega;
    }

    epsilonFinal
    {
	    $epsilon;
    }


    kFinal
    {
	    $k;
    }

    alpha.oil
    {
        nAlphaCorr      2;
        nAlphaSubCycles 4;

        MULESCorr       no;

        solver          smoothSolver;
        smoother        symGaussSeidel;
        tolerance       1e-8;
        relTol          0;
    }
}

PIMPLE
{
    consistent		yes;
    nOuterCorrectors  	3;
    nCorrectors     	8;
}

relaxationFactors
{
    fields
    {
    }
    equations
    {
	    e			0.8;
	    U			0.9;
	    "k|omega|epsilon"	0.6;
    }
}

// ************************************************************************* //
