/*--------------------------------*- C++ -*----------------------------------*\
  =========                 |
  \\      /  F ield         | OpenFOAM: The Open Source CFD Toolbox
   \\    /   O peration     | Website:  https://openfoam.org
    \\  /    A nd           | Version:  8
     \\/     M anipulation  |
\*---------------------------------------------------------------------------*/
FoamFile
{
    version     2.0;
    format      ascii;
    class       volScalarField;
    location    "0/TEHL";
    object      relRho;
}
// * * * * * * * * * * * * * * * * * * * * * * * * * * * * * * * * * * * * * //

dimensions      [0 0 0 0 0 0 0];

internalField   uniform 1.00198;
inletValue	uniform 1.00339;

boundaryField
{
    filmsides
    {
        type 		zeroGradient;
    }
    filmoutlet_to_groove
    {
        type            zeroGradient;
    }
    filminlet_to_groove
    {
        type            mappedPRDScalar;
	value 		$inletValue;
	setAverage	false;
	average 	1;
	field 		p;
	bulkModulus	5e7;
	vaporPressure	1000;
    }
    film_to_bush 
    {
        type            zeroGradient;
    }
    film_to_shaft
    {
        type            zeroGradient;
    }
    "procBoundary.*"
    {
	type		processor;
	value 		$internalField;
    }
}


// ************************************************************************* //
