/*--------------------------------*- C++ -*----------------------------------*\
  =========                 |
  \\      /  F ield         | OpenFOAM: The Open Source CFD Toolbox
   \\    /   O peration     | Website:  https://openfoam.org
    \\  /    A nd           | Version:  8
     \\/     M anipulation  |
\*---------------------------------------------------------------------------*/
FoamFile
{
    version     2.0;
    format      ascii;
    class       volScalarField;
    location    "0/bush";
    object      cellToRegion;
}
// * * * * * * * * * * * * * * * * * * * * * * * * * * * * * * * * * * * * * //

dimensions      [0 0 0 0 0 0 0];

internalField   uniform 0;

boundaryField
{
    shaftsides 
    {
	type 		zeroGradient;
    }

    shaftinner 
    {
	type 		zeroGradient;
    }

    shaft_to_inlet
    {
	type            zeroGradient;
    }

    shaft_to_groove
    {
	type            zeroGradient;
    }

    shaft_to_film
    {
	    type 	zeroGradient;
    }
}


// ************************************************************************* //
