/*--------------------------------*- C++ -*----------------------------------*\
  =========                 |
  \\      /  F ield         | OpenFOAM: The Open Source CFD Toolbox
   \\    /   O peration     | Website:  https://openfoam.org
    \\  /    A nd           | Version:  8
     \\/     M anipulation  |
\*---------------------------------------------------------------------------*/
FoamFile
{
    version     2.0;
    format      ascii;
    class       dictionary;
    location    "system/fluid";
    object      fvSolution;
}
// * * * * * * * * * * * * * * * * * * * * * * * * * * * * * * * * * * * * * //

solvers
{    
    p
    {
        solver           PBiCGStab;
        preconditioner   DIC;
        tolerance        1e-8;
        relTol           0.01;
    }

    relRho
    {
        solver           PBiCGStab;
        preconditioner   DILU;
        tolerance        1e-8;
        relTol           0.01;
    }
}

relaxationFactors
{
    equations
    {
    }
    fields
    {
	    relRho	1.1;
    }
}

// ************************************************************************* //
