/*--------------------------------*- C++ -*----------------------------------*\
  =========                 |
  \\      /  F ield         | OpenFOAM: The Open Source CFD Toolbox
   \\    /   O peration     | Website:  https://openfoam.org
    \\  /    A nd           | Version:  8
     \\/     M anipulation  |
\*---------------------------------------------------------------------------*/
FoamFile
{
    version     2.0;
    format      ascii;
    class       dictionary;
    location    "system/film";
    object      solverControl;
}
// * * * * * * * * * * * * * * * * * * * * * * * * * * * * * * * * * * * * * //

relRho 			true;
filmFraction 		false;
g 			false;
bulkModulus		false;
filmThickness 		false; 
rigidFilmThickness 	false; 
deformation 		true; 
rho 		 	false; 
mu 			false; 
couette 		true; 
poiseuille 		true; 
U 			true; 
massFlow 		false;
ransegnola 		false;
dilation 		false;
TComponents		false;
k 			false;
cp 		 	false;
TMax 			false;

// ************************************************************************* //
