/*--------------------------------*- C++ -*----------------------------------*\
  =========                 |
  \\      /  F ield         | OpenFOAM: The Open Source CFD Toolbox
   \\    /   O peration     | Website:  https://openfoam.org
    \\  /    A nd           | Version:  8
     \\/     M anipulation  |
\*---------------------------------------------------------------------------*/
FoamFile
{
    version     2.0;
    format      ascii;
    class       dictionary;
    location    "constant";
    object      settings;
}
// * * * * * * * * * * * * * * * * * * * * * * * * * * * * * * * * * * * * * //

relRhoTolerance		1e-3;
pTolerance		1e-5;
TTolerance 		1e-5;
TRegionTolerance 	0;
pMaxIterations		150;
TMaxIterations		1;
TEHLMaxIterations 	20;
de 			0.05;
boundaries		();

deformation	    false;
temperature	    true;
thermalDilation     false;
variableViscosity   true;
loadConvergence     false;
cavitationMethod    elrodAdam;
includeCFD 	    true;
nDeformationThreads 8;
misalignment 	    false;
unwrapped 	    false;
includePoiseuille   false;

// ************************************************************************* //
