/*--------------------------------*-C++ -*----------------------------------*\
  =========                 |
  \\      /  F ield         | OpenFOAM: The Open SourceCFD Toolbox
   \\    /   O peration     | Website:  https://openfoam.org
    \\  /    A nd           | Version:  8
     \\/     M anipulation  |
\*---------------------------------------------------------------------------*/
FoamFile
{
    version     2.0;
    format      ascii;
    class       dictionary;
    object      blockMeshDict;
}
// * * * * * * * * * * * * * * * * * * * * * * * * * * * * * * * * * * * * * //

convertToMeters         0.001;  
xMesh                   30;
zMesh                   30;

Ri                      20.1;
L                       40;
c                       20;
Coeff                   0.707107;

vertices
(
    (#calc "-1*($Ri + $c)" 0 0)
    (0 #calc "($Ri + $c)" 0)
    (#calc "($Ri + $c)" 0 0)
    (0 #calc "-1*($Ri + $c)" 0) 
    (#calc "-1*$Ri" 0 0)
    (0 $Ri 0)
    ($Ri 0 0)
    (0 #calc "-1*$Ri" 0) 
    
    (#calc "-1*($Ri + $c)" 0 $L)
    (0 #calc "($Ri + $c)" $L)
    (#calc "($Ri + $c)" 0 $L)
    (0 #calc "-1*($Ri + $c)" $L)     
    (#calc "-1*$Ri" 0 $L)
    (0 $Ri $L)
    ($Ri 0 $L)
    (0 #calc "-1*$Ri" $L) 
);

blocks
(   
    // TEHL blocks
    hex (0 4 5 1 8 12 13 9) (1 $xMesh  $zMesh) simpleGrading (1 1 1)
    hex (1 5 6 2 9 13 14 10) (1 $xMesh $zMesh) simpleGrading (1 1 1)
    hex (2 6 7 3 10 14 15 11) (1 $xMesh $zMesh) simpleGrading (1 1 1)	
    hex (3 7 4 0 11 15 12 8) (1 $xMesh $zMesh) simpleGrading (1 1 1)	
);

edges
(

    arc 0 1 (#calc "-1*$Coeff*($Ri +$c)" #calc "$Coeff*($Ri +$c)" 0)
    arc 1 2 (#calc "$Coeff*($Ri +$c)" #calc "$Coeff*($Ri +$c)" 0)
    arc 2 3 (#calc "$Coeff*($Ri +$c)" #calc "-1*$Coeff*($Ri +$c)" 0)
    arc 3 0 (#calc "-1*$Coeff*($Ri +$c)" #calc "-1*$Coeff*($Ri +$c)" 0)
    arc 4 5 (#calc "-1*$Coeff*$Ri" #calc "$Coeff*$Ri" 0)
    arc 5 6 (#calc "$Coeff*$Ri" #calc "$Coeff*$Ri" 0)
    arc 6 7 (#calc "$Coeff*$Ri" #calc "-1*$Coeff*$Ri" 0)
    arc 7 4 (#calc "-1*$Coeff*$Ri" #calc "-1*$Coeff*$Ri" 0)
    
    arc 8 9 (#calc "-1*$Coeff*($Ri +$c)" #calc "$Coeff*($Ri +$c)" $L)
    arc 9 10 (#calc "$Coeff*($Ri +$c)" #calc "$Coeff*($Ri +$c)" $L)
    arc 10 11 (#calc "$Coeff*($Ri +$c)" #calc "-1*$Coeff*($Ri +$c)" $L)
    arc 11 8 (#calc "-1*$Coeff*($Ri +$c)" #calc "-1*$Coeff*($Ri +$c)" $L)
    arc 12 13 (#calc "-1*$Coeff*$Ri" #calc "$Coeff*$Ri" $L)
    arc 13 14 (#calc "$Coeff*$Ri" #calc "$Coeff*$Ri" $L)
    arc 14 15 (#calc "$Coeff*$Ri" #calc "-1*$Coeff*$Ri" $L)
    arc 15 12 (#calc "-1*$Coeff*$Ri" #calc "-1*$Coeff*$Ri" $L)
);

boundary
(
    outerWalls
    {
        type wall;
        faces
        (
            (0 8 11 3)
            (1 0 8 9)
            (2 10 9 1)
            (3 2 10 11)
        );
    }
    Bearing_to_TEHL
    {
        type mappedPatchBase;
        faces
        (
            (4 5 13 12)
            (5 6 14 13)
            (6 7 15 14)
            (7 4 12 15)
        );
    }
    sides_Bearing
    {
        type patch;
        faces
        (
            (0 1 5 4)
            (1 2 6 5)
            (2 3 7 6)
            (3 0 4 7)
            (8 12 13 9)
            (9 13 14 10)
            (10 14 15 11)
            (11 15 12 8)
        );
    }     
);

mergePatchPairs
(
);
// ************************************************************************* //
