/*--------------------------------*- C++ -*----------------------------------*\
  =========                 |
  \\      /  F ield         | OpenFOAM: The Open Source CFD Toolbox
   \\    /   O peration     | Website:  https://openfoam.org
    \\  /    A nd           | Version:  8
     \\/     M anipulation  |
\*---------------------------------------------------------------------------*/
FoamFile
{
    version     2.0;
    format      ascii;
    class       dictionary;
    location    "system/Bearing";
    object      fvSolution;
}
// * * * * * * * * * * * * * * * * * * * * * * * * * * * * * * * * * * * * * //

solvers
{
    rho
    {
        solver          diagonal;
    }

    rhoFinal
    {
        $rho;
    }

    p_rgh
    {
        solver           GAMG;
        smoother         symGaussSeidel;
        tolerance        1e-7;
        relTol           0.01;
    }
    
    T
    {
        solver           PBiCGStab;
        preconditioner   DILU;
        tolerance        1e-6;
        relTol           0.01;
    }
    TFinal
    {
	    $T;
	    relTol	0;
    }

    e
    {
        solver           GAMG;
        smoother         GaussSeidel;
        tolerance        1e-6;
        relTol           0.1;
    }
    
    eFinal
    {
        $e;
        relTol           0;
    }

    p_rghFinal
    {
        $p_rgh;
        relTol           0;
    }

    "(U|h)"
    {
        solver           PBiCGStab;
        preconditioner   DILU;
        tolerance        1e-7;
        relTol           0.1;
    }

    "(U|h)Final"
    {
        $U;
        relTol           0;
    }
}

PIMPLE
{
}

relaxationFactors
{
    equations
    {
	    T		0.7;
    }
    field
    {
	    T		0.5;
    }
}

// ************************************************************************* //
