/*--------------------------------*- C++ -*----------------------------------*\
  =========                 |
  \\      /  F ield         | OpenFOAM: The Open Source CFD Toolbox
   \\    /   O peration     | Website:  https://openfoam.org
    \\  /    A nd           | Version:  8
     \\/     M anipulation  |
\*---------------------------------------------------------------------------*/
FoamFile
{
    version     2.0;
    format      ascii;
    class       volScalarField;
    location    "0/bush";
    object      T;
}
// * * * * * * * * * * * * * * * * * * * * * * * * * * * * * * * * * * * * * //

dimensions      [0 0 0 1 0 0 0];

internalField   uniform 313;

boundaryField
{
    bushwalls
    {
        type            externalWallHeatFluxTemperature;
        mode            coefficient;
        Ta              constant 313;
        h               uniform 50.0;
        thicknessLayers ();
        kappaLayers     ();

        value           $internalField;
   }

    bush_to_groove 
    {
	type            compressible::turbulentTemperatureCoupledBaffleMixed;
        value           $internalField;
	Tnbr            T;
    }

    bush_to_film
    {
        type            compressible::turbulentTemperatureCoupledBaffleMixed;
        value           $internalField;
	Tnbr            T;
    }
    
    bushsides
    {
	    type 	zeroGradient;
    }
    "procBoundary.*"
    {
	type		processor;
	value 		$internalField;
    }
}


// ************************************************************************* //
