/*--------------------------------*- C++ -*----------------------------------*\
  =========                 |
  \\      /  F ield         | OpenFOAM: The Open Source CFD Toolbox
   \\    /   O peration     | Website:  https://openfoam.org
    \\  /    A nd           | Version:  8
     \\/     M anipulation  |
\*---------------------------------------------------------------------------*/
FoamFile
{
    version     2.0;
    format      ascii;
    class       dictionary;
    location    "constant/TEHL";
    object      fvOptions;
}
// * * * * * * * * * * * * * * * * * * * * * * * * * * * * * * * * * * * * * //

options
{
	/*
    fixedTemperature
    {
        type            scalarFixedValueConstraint;
        active          yes;
        
        selectionMode   cellSet;
        cellSet         filmInlet;
        fieldValues
        {
            T           315;
        }
    }
    
    fixedValue
    {
        type            scalarFixedValueConstraint;
        active          yes;
        selectionMode   cellZone;
        cellZone        filmInletZone;
        fieldValues
        {
            relRho         1.00175;
        }
    }
    */
}

// ************************************************************************* //
