/*--------------------------------*- C++ -*----------------------------------*\
  =========                 |
  \\      /  F ield         | OpenFOAM: The Open Source CFD Toolbox
   \\    /   O peration     | Website:  https://openfoam.org
    \\  /    A nd           | Version:  8
     \\/     M anipulation  |
\*---------------------------------------------------------------------------*/
FoamFile
{
    version     2.0;
    format      ascii;
    class       dictionary;
    location    "constant";
    object      loadConvergence;
}
// * * * * * * * * * * * * * * * * * * * * * * * * * * * * * * * * * * * * * //

target		LOAD;
eUpper 		0.9;
eLower 		0.2;
tolerance 	1e-2;

// ************************************************************************* //
